03_OpenDSS_Circuits/Commonwealth_Circuit_Opendss/Loads_try_smallAmount.DSS
New Load.258904308_2 duty=LS_PhaseB 	Phases= 1  Bus1=258904308.2 kV= 7.19976905311778  XFKVA=50.000000 PF= 0.98  	kWh=70.000000 NumCust=7.000000 ! KW= 16.985982 
New Load.260761328_1 duty=LS_PhaseA	Phases= 1  Bus1=260761328.1 kV= 7.19976905311778  XFKVA=167.000000 PF= 0.98  	kWh=225.000000 NumCust=35.000000 ! KW= 59.837962 
New Load.258904396_1 duty=LS_PhaseA	Phases= 1  Bus1=258904396.1 kV= 7.19976905311778  XFKVA=50.000000 PF= 0.98  	kWh=45.000000 NumCust=5.000000 ! KW= 17.915557 
New Load.258904125_3 duty=LS_PhaseC 	Phases= 1  Bus1=258904125.3 kV= 7.19976905311778  XFKVA=100.000000 PF= 0.98  	kWh=62.520000 NumCust=11.000000 ! KW= 28.909161 
New Load.258904132_2 duty=LS_PhaseB	Phases= 1  Bus1=258904132.2 kV= 7.19976905311778  XFKVA=100.000000 PF= 0.98  	kWh=39.000000 NumCust=5.000000 ! KW= 33.971964
New Load.258908430_3 duty=LS_PhaseB	Phases= 1  Bus1=258908430.3 kV= 7.19976905311778  XFKVA=25.000000 PF= 0.98  	kWh=45.000000 NumCust=4.000000 ! KW= 7.22729 
New Load.260761148_3 duty=LS_PhaseC	Phases= 1  Bus1=260761148.3 kV= 7.19976905311778  XFKVA=100.000000 PF= 0.98  	kWh=66.010000 NumCust=15.000000 ! KW= 28.909161 
New Load.260761153_3 duty=LS_PhaseC	Phases= 1  Bus1=260761153.3 kV= 7.19976905311778  XFKVA=100.000000 PF= 0.98  	kWh=84.000000 NumCust=16.000000 ! KW= 28.909161 
New Load.258904090_2 duty=LS_PhaseB	Phases= 1  Bus1=258904090.2 kV= 7.19976905311778  XFKVA=25.000000 PF= 0.98  	kWh=57.000000 NumCust=6.000000 ! KW= 8.492991 
New Load.260761293_3 duty=LS_PhaseC	Phases= 1  Bus1=260761293.3 kV= 7.19976905311778  XFKVA=100.000000 PF= 0.98  	kWh=96.000000 NumCust=11.000000 ! KW= 28.909161 
New Load.258904010_2 duty=LS_PhaseB	Phases= 1  Bus1=258904010.2 kV= 7.19976905311778  XFKVA=25.000000 PF= 0.98  	kWh=85.000000 NumCust=7.000000 ! KW= 8.492991 
New Load.699645825_3 duty=LS_PhaseC	Phases= 1  Bus1=699645825.3 kV= 7.19976905311778  XFKVA=25.000000 PF= 0.98  	kWh=43.000000 NumCust=5.000000 ! KW= 7.22729 
New Load.263530738_3 duty=LS_PhaseC	Phases= 1  Bus1=263530738.3 kV= 7.19976905311778  XFKVA=25.000000 PF= 0.98  	kWh=18.000000 NumCust=2.000000 ! KW= 7.22729 
New Load.258908375_1 duty=LS_PhaseA	Phases= 1  Bus1=258908375.1 kV= 7.19976905311778  XFKVA=50.000000 PF= 0.98  	kWh=114.000000 NumCust=10.000000 ! KW= 17.915557 
New Load.258904020_2 duty=LS_PhaseB	Phases= 1  Bus1=258904020.2 kV= 7.19976905311778  XFKVA=50.000000 PF= 0.98  	kWh=82.000000 NumCust=7.000000 ! KW= 16.985982 
New Load.258904095_2 duty=LS_PhaseB	Phases= 1  Bus1=258904095.2 kV= 7.19976905311778  XFKVA=25.000000 PF= 0.98  	kWh=44.000000 NumCust=4.000000 ! KW= 8.492991 
New Load.699645905_1 duty=LS_PhaseA 	Phases= 1  Bus1=699645905.1 kV= 7.19976905311778  XFKVA=50.000000 PF= 0.98  	kWh=94.520000 NumCust=8.000000 ! KW= 17.915557 
New Load.260761308_2 duty=LS_PhaseB 	Phases= 1  Bus1=260761308.2 kV= 7.19976905311778  XFKVA=167.000000 PF= 0.98  	kWh=70.000000 NumCust=11.000000 ! KW= 56.73318 
New Load.258908071_1 duty=LS_PhaseA 	Phases= 1  Bus1=258908071.1 kV= 7.19976905311778  XFKVA=50.000000 PF= 0.98  	kWh=70.000000 NumCust=8.000000 ! KW= 17.915557 
New Load.258908076_1 duty=LS_PhaseA 	Phases= 1  Bus1=258908076.1 kV= 7.19976905311778  XFKVA=50.000000 PF= 0.98  	kWh=118.000000 NumCust=12.000000 ! KW= 17.915557 
New Load.260760188_1 duty=LS_PhaseA 	Phases= 1  Bus1=260760188.1 kV= 7.19976905311778  XFKVA=250.000000 PF= 0.98  	kWh=159.300000 NumCust=11.000000 ! KW= 159.3 
New Load.260760188_2 duty=LS_PhaseB 	Phases= 1  Bus1=260760188.2 kV= 7.19976905311778  XFKVA=250.000000 PF= 0.98  	kWh=159.300000 NumCust=0.000000 ! KW= 159.3 
New Load.260760188_3 duty=LS_PhaseC 	Phases= 1  Bus1=260760188.3 kV= 7.19976905311778  XFKVA=250.000000 PF= 0.98  	kWh=159.300000 NumCust=0.000000 ! KW= 159.3 
New Load.261302041_2 duty=LS_PhaseB 	Phases= 1  Bus1=261302041.2 kV= 7.19976905311778  XFKVA=75.000000 PF= 0.98  	kWh=114.000000 NumCust=17.000000 ! KW= 25.478973 
New Load.263991393_3 duty=LS_PhaseC 	Phases= 1  Bus1=263991393.3 kV= 7.19976905311778  XFKVA=25.000000 PF= 0.98  	kWh=36.000000 NumCust=4.000000 ! KW= 7.22729 
New Load.263530720_1 duty=LS_PhaseA 	Phases= 1  Bus1=263530720.1 kV= 7.19976905311778  XFKVA=166.700000 PF= 0.98  	kWh=36.930000 NumCust=2.000000 ! KW= 36.93 
New Load.263530720_2 duty=LS_PhaseB 	Phases= 1  Bus1=263530720.2 kV= 7.19976905311778  XFKVA=166.700000 PF= 0.98  	kWh=36.930000 NumCust=0.000000 ! KW= 36.93 
New Load.263530720_3 duty=LS_PhaseC 	Phases= 1  Bus1=263530720.3 kV= 7.19976905311778  XFKVA=166.700000 PF= 0.98  	kWh=36.930000 NumCust=0.000000 ! KW= 36.93 
New Load.258908355_1 duty=LS_PhaseA 	Phases= 1  Bus1=258908355.1 kV= 7.19976905311778  XFKVA=25.000000 PF= 0.98  	kWh=24.000000 NumCust=3.000000 ! KW= 8.957779 
New Load.258908415_3 duty=LS_PhaseC 	Phases= 1  Bus1=258908415.3 kV= 7.19976905311778  XFKVA=25.000000 PF= 0.98  	kWh=122.000000 NumCust=11.000000 ! KW= 7.22729 
New Load.258903814_1 duty=LS_PhaseA 	Phases= 1  Bus1=258903814.1 kV= 7.19976905311778  XFKVA=10.000000 PF= 0.98  	kWh=24.800000 NumCust=0.000000 ! KW= 3.583111 
New Load.260761091_1 duty=LS_PhaseA 	Phases= 1  Bus1=260761091.1 kV= 7.19976905311778  XFKVA=167.000000 PF= 0.98  	kWh=49.000000 NumCust=7.000000 ! KW= 59.837962 
New Load.258908250_1 duty=LS_PhaseA 	Phases= 1  Bus1=258908250.1 kV= 7.19976905311778  XFKVA=50.000000 PF= 0.98  	kWh=35.000000 NumCust=4.000000 ! KW= 17.915557 
New Load.263533241_2 duty=LS_PhaseB 	Phases= 1  Bus1=263533241.2 kV= 7.19976905311778  XFKVA=50.000000 PF= 0.98  	kWh=42.000000 NumCust=4.000000 ! KW= 16.985982 
New Load.258908235_3 duty=LS_PhaseC 	Phases= 1  Bus1=258908235.3 kV= 7.19976905311778  XFKVA=50.000000 PF= 0.98  	kWh=89.000000 NumCust=9.000000 ! KW= 14.454581 
New Load.263530684_1 duty=LS_PhaseA 	Phases= 1  Bus1=263530684.1 kV= 7.19976905311778  XFKVA=25.000000 PF= 0.98  	kWh=75.000000 NumCust=13.000000 ! KW= 8.957779 
New Load.260761116_3 duty=LS_PhaseC 	Phases= 1  Bus1=260761116.3 kV= 7.19976905311778  XFKVA=100.000000 PF= 0.98  	kWh=107.000000 NumCust=12.000000 ! KW= 28.909161
New Load.263533061_2 duty=LS_PhaseB 	Phases= 1  Bus1=263533061.2 kV= 7.19976905311778  XFKVA=25.000000 PF= 0.98  	kWh=51.000000 NumCust=5.000000 ! KW= 8.492991 
New Load.258908056_1 duty=LS_PhaseA 	Phases= 1  Bus1=258908056.1 kV= 7.19976905311778  XFKVA=50.000000 PF= 0.98  	kWh=24.800000 NumCust=1.000000 ! KW= 17.915557 
New Load.258908056_2 duty=LS_PhaseB 	Phases= 1  Bus1=258908056.2 kV= 7.19976905311778  XFKVA=50.000000 PF= 0.98  	kWh=24.800000 NumCust=0.000000 ! KW= 16.985982 
New Load.258908056_3 duty=LS_PhaseC 	Phases= 1  Bus1=258908056.3 kV= 7.19976905311778  XFKVA=50.000000 PF= 0.98  	kWh=24.800000 NumCust=0.000000 ! KW= 14.454581 
New Load.617632353_2 duty=LS_PhaseB 	Phases= 1  Bus1=617632353.2 kV= 7.19976905311778  XFKVA=50.000000 PF= 0.98  	kWh=39.000000 NumCust=5.000000 ! KW= 16.985982 
New Load.258908290_2 duty=LS_PhaseB 	Phases= 1  Bus1=258908290.2 kV= 7.19976905311778  XFKVA=50.000000 PF= 0.98  	kWh=54.000000 NumCust=7.000000 ! KW= 16.985982 
New Load.263533160_3 duty=LS_PhaseC 	Phases= 1  Bus1=263533160.3 kV= 7.19976905311778  XFKVA=25.000000 PF= 0.98  	kWh=40.000000 NumCust=7.000000 ! KW= 7.22729 
New Load.263530702_1 duty=LS_PhaseA 	Phases= 1  Bus1=263530702.1 kV= 7.19976905311778  XFKVA=50.000000 PF= 0.98  	kWh=120.000000 NumCust=18.000000 ! KW= 17.915557 
New Load.263533223_1 duty=LS_PhaseA 	Phases= 1  Bus1=263533223.1 kV= 7.19976905311778  XFKVA=50.000000 PF= 0.98  	kWh=20.000000 NumCust=2.000000 ! KW= 17.915557 
New Load.263997296_3 duty=LS_PhaseC 	Phases= 1  Bus1=263997296.3 kV= 7.19976905311778  XFKVA=100.000000 PF= 0.98  	kWh=180.000000 NumCust=25.000000 ! KW= 28.909161 
